86
angstrom
C   0.6679  6.9471 -0.0152
C   1.3364  5.7898 -0.0383
C   0.6679  4.6317 -0.0405
C  -0.6692  4.6315 -0.0197
C  -1.3372  5.7888  0.0033
C  -0.6692  6.9469  0.0056
C  -2.6740  5.7885  0.0358
C  -3.3426  6.9463  0.0578
C  -2.6744  8.1046  0.0387
C  -1.3374  8.1048  0.0169
C   1.3362  8.1053 -0.0247
C   2.6726  8.1056 -0.0572
C   3.3418  6.9473 -0.0340
C   2.6731  5.7899 -0.0474
C   1.3366  3.4738 -0.0519
C   0.6681  2.3157 -0.0521
C  -0.6686  2.3156 -0.0405
C  -1.3370  3.4733 -0.0103
C   1.3370  1.1581 -0.0519
C   0.6685  0.0002 -0.0515
C  -0.6684  0.0002 -0.0515
C  -1.3372  1.1576 -0.0468
C   1.3370 -1.1575 -0.0401
C   0.6686 -2.3156 -0.0398
C  -0.6680 -2.3160 -0.0515
C  -1.3368 -1.1580 -0.0447
C   1.3373 -3.4734 -0.0166
C   0.6688 -4.6315 -0.0163
C  -0.6679 -4.6317 -0.0397
C  -1.3366 -3.4740 -0.0578
C  -4.6549  6.9458  0.0985
C  -5.8663  6.9459  0.1362
C  -7.3354  6.9454  0.1819
C   4.6543  6.9479  0.0025
C   5.8658  6.9480  0.0364
C   7.3353  6.9481  0.0770
C   1.3372 -5.7889  0.0185
C   0.6692 -6.9469  0.0183
C  -0.6677 -6.9470 -0.0163
C  -1.3359 -5.7898 -0.0395
C  -1.3356 -8.1051 -0.0159
C  -2.6724 -8.1058 -0.0506
C  -3.3407 -6.9480 -0.0742
C  -2.6727 -5.7899 -0.0740
C   2.6738 -5.7879  0.0648
C   3.3416 -6.9453  0.1001
C   2.6733 -8.1030  0.1110
C   1.3368 -8.1040  0.0648
C  -4.6535 -6.9488 -0.0969
C  -5.8653 -6.9490 -0.1182
C  -7.3350 -6.9492 -0.1441
C   4.6546 -6.9451  0.1233
C   5.8662 -6.9448  0.1451
C   7.3360 -6.9446  0.1715
H  -3.1898  4.8945  0.0440
H  -3.1907  8.9981  0.0409
H  -0.8215  8.9985  0.0089
H   0.8203  8.9988 -0.0069
H   3.1877  8.9987 -0.1000
H   3.1889  4.8962 -0.0647
H   2.3685  3.4739 -0.0604
H  -2.3686  3.4728  0.0204
H   2.3689  1.1583 -0.0519
H  -2.3692  1.1574 -0.0479
H   2.3690 -1.1574 -0.0314
H  -2.3687 -1.1582 -0.0340
H   2.3691 -3.4732  0.0010
H  -2.3685 -3.4742 -0.0765
H  -7.7076  7.8248 -0.3008
H  -7.6606  6.9334  1.2013
H  -7.7077  6.0776 -0.3214
H   7.7060  7.8160 -0.4270
H   7.7055  6.0688 -0.4077
H   7.6640  6.9593  1.0952
H  -0.8197 -8.9985  0.0111
H  -3.1882 -8.9998 -0.0590
H  -3.1885 -4.8965 -0.1004
H   3.1894 -4.8939  0.0733
H   3.1887 -8.9960  0.1552
H   0.8210 -8.9978  0.0651
H  -7.6828 -6.0794 -0.6611
H  -7.7095 -6.9419  0.8583
H  -7.6828 -7.8267 -0.6483
H   7.7017 -6.0747 -0.3328
H   7.7017 -7.8220 -0.3197
H   7.6745 -6.9370  1.1866
