68
angstrom
C  -2.2320  9.7413 -2.5983
C  -1.6969  8.4970 -2.2658
C  -2.5457  7.4268 -1.9820
C  -3.9286  7.6009 -2.0308
C  -4.4632  8.8457 -2.3633
C  -3.6149  9.9159 -2.6471
C  -1.4335 10.7490 -2.8659
C  -0.6963 11.6785 -3.1126
C   0.1982 12.8066 -3.4116
C  -4.7272  6.5937 -1.7637
C  -5.4643  5.6637 -1.5170
C  -6.3583  4.5362 -1.2180
C  -2.0421  6.2551 -1.6693
C  -1.5776  5.1733 -1.3804
C  -1.0745  4.0016 -1.0677
C   0.3084  3.8275 -1.0190
C   0.8434  2.5827 -0.6865
C  -0.0054  1.5125 -0.4027
C  -1.3883  1.6871 -0.4514
C  -1.9228  2.9314 -0.7839
N   0.4779  0.3880 -0.1026
N  -0.4775 -0.3882  0.1024
C   0.0053 -1.5127  0.4030
C  -0.8430 -2.5829  0.6868
C  -0.3085 -3.8271  1.0188
C   1.0744 -4.0018  1.0675
C   1.9227 -2.9316  0.7837
C   1.3882 -1.6868  0.4512
C   1.5780 -5.1735  1.3802
C   2.0425 -6.2548  1.6691
C   2.5456 -7.4265  1.9823
C   3.9285 -7.6011  2.0306
C   4.4631 -8.8459  2.3631
C   3.6148 -9.9161  2.6469
C   2.2319 -9.7415  2.5981
C   1.6973 -8.4967  2.2661
C   1.4333 -10.7487  2.8657
C   0.6962 -11.6787  3.1124
C  -0.1978 -12.8068  3.4114
C   4.7271 -6.5939  1.7635
C   5.4642 -5.6639  1.5173
C   6.3587 -4.5358  1.2183
H  -0.6737  8.3680 -2.2297
H  -5.4865  8.9748 -2.3993
H  -4.0105 10.8368 -2.8931
H   0.1910 13.4944 -2.5920
H  -0.1385 13.3037 -4.2973
H   1.1929 12.4426 -3.5630
H  -6.7994  4.6768 -0.2533
H  -5.7975  3.6250 -1.2244
H  -7.1290  4.4859 -1.9586
H   0.9359  4.6195 -1.2289
H   1.8666  2.4536 -0.6505
H  -2.0161  0.8954 -0.2413
H  -2.9461  3.0605 -0.8200
H  -1.8663 -2.4538  0.6511
H  -0.9363 -4.6189  1.2286
H   2.9459 -3.0607  0.8197
H   2.0158 -0.8950  0.2410
H   5.4863 -8.9750  2.3991
H   4.0103 -10.8370  2.8930
H   0.6740 -8.3675  2.2305
H  -0.6388 -12.6664  4.3762
H   0.3632 -13.7179  3.4048
H  -0.9685 -12.8571  2.6709
H   6.3515 -3.8480  2.0379
H   6.0220 -4.0387  0.3326
H   7.3534 -4.8998  1.0669
