66
angstrom
C   5.0370  6.2568 -1.7270
C   5.5679  5.0164 -1.3927
C   4.7232  3.9393 -1.0994
C   3.3250  4.1206 -1.1551
C   2.7936  5.3678 -1.4942
C   3.6479  6.4398 -1.7758
C   2.4548  3.0585 -0.8645
C   1.6991  2.1446 -0.6011
C   0.8423  1.0742 -0.3020
C   1.3889 -0.1689  0.0309
C   0.5567 -1.2490  0.3339
C  -0.8435 -1.0772  0.2976
C  -1.3906  0.1657 -0.0362
C  -0.5581  1.2470 -0.3341
C  -1.7022 -2.1459  0.5948
C  -2.4574 -3.0597  0.8588
C  -3.3259 -4.1227  1.1509
C  -2.7935 -5.3699  1.4876
C  -3.6487 -6.4404  1.7723
C  -5.0382 -6.2586  1.7209
C  -5.5707 -5.0180  1.3893
C  -4.7247 -3.9402  1.1010
C  -5.2432 -2.6800  0.7561
C  -3.0884 -7.6887  2.1005
C  -5.6389 -1.5760  0.4438
C  -6.0858 -0.2734  0.0685
C  -2.5591 -8.7460  2.3742
C  -1.9232 -9.9852  2.6870
C  -1.1070  2.4976 -0.6657
C   1.1086 -2.4951  0.6739
C   3.0890  7.6891 -2.1000
C   2.5605  8.7473 -2.3716
C   1.9244  9.9843 -2.6890
C   5.2432  2.6834 -0.7451
C   5.6423  1.5804 -0.4327
C   6.0871  0.2763 -0.0638
C  -1.5551  3.5874 -0.9574
C  -2.0718  4.8692 -1.3122
C   1.5595 -3.5831  0.9669
C   2.0750 -4.8667  1.3149
H   5.6988  7.0920 -1.9504
H   6.6474  4.8755 -1.3548
H   1.7126  5.5025 -1.5356
H   2.4713 -0.2943  0.0534
H  -2.4732  0.2898 -0.0626
H  -1.7124 -5.5059  1.5248
H  -5.7001 -7.0944  1.9414
H  -6.6505 -4.8775  1.3515
H  -6.3005 -0.2071 -1.0150
H  -5.3296  0.5035  0.2936
H  -7.0127  0.0178  0.5955
H  -1.7871 -10.6168  1.7890
H  -2.5057 -10.5826  3.4124
H  -0.9192 -9.8340  3.1264
H   1.6141 10.0290 -3.7500
H   2.5888 10.8506 -2.5134
H   1.0146 10.1473 -2.0806
H   6.1234 -0.4089 -0.9320
H   5.4140 -0.1894  0.6820
H   7.0996  0.2869  0.3784
H  -2.3215  4.9277 -2.3884
H  -1.3448  5.6789 -1.1079
H  -2.9937  5.1167 -0.7552
H   2.1485 -5.5355  0.4367
H   1.4302 -5.3798  2.0541
H   3.0859 -4.8041  1.7566
