64
angstrom
C   5.0564  6.2757 -1.7108
C   5.5995  5.0407 -1.3715
C   4.7648  3.9647 -1.0452
C   3.3650  4.1483 -1.0574
C   2.8215  5.3915 -1.3906
C   3.6654  6.4576 -1.7215
C   2.5084  3.0777 -0.7555
C   1.7550  2.1514 -0.5301
C   0.8914  1.0796 -0.2674
C   1.4156 -0.1534  0.1061
C   0.5566 -1.2288  0.3900
C  -0.8372 -1.0826  0.3121
C  -1.3600  0.1635 -0.0778
C  -0.5085  1.2196 -0.3679
C  -1.7395 -2.1113  0.6049
C  -2.5351 -2.9927  0.8657
C  -3.3859 -4.0660  1.1733
C  -2.8245 -5.3026  1.5071
C  -3.6468 -6.3965  1.7968
C  -5.0414 -6.2486  1.7648
C  -5.6046 -5.0198  1.4381
C  -4.7889 -3.9222  1.1362
C  -5.3279 -2.6728  0.7864
C  -3.0580 -7.6343  2.1145
C  -5.7006 -1.5624  0.4689
C  -6.1041 -0.2453  0.0955
C  -2.5304 -8.6936  2.3844
C  -1.9046 -9.9368  2.7003
O  -1.0944  2.4328 -0.6305
O   1.2742 -2.3284  0.7268
C   3.0950  7.6977 -2.0592
C   2.5715  8.7565 -2.3384
C   1.9483 10.0007 -2.6537
C   5.2862  2.7036 -0.7074
C   5.6709  1.5926 -0.4039
C   6.1113  0.2858 -0.0370
C  -0.9401  2.8604 -1.9801
C   0.6046 -3.5550  0.9687
H   5.7100  7.1073 -1.9691
H   6.6801  4.9031 -1.3590
H   1.7404  5.5312 -1.3923
H   2.4927 -0.2971  0.1905
H  -2.4390  0.3047 -0.1394
H  -1.7430 -5.4178  1.5379
H  -5.6806 -7.0993  1.9957
H  -6.6876 -4.9034  1.4120
H  -6.2527  0.4068  0.9780
H  -7.0522 -0.2422 -0.4720
H  -5.3434  0.2503 -0.5393
H  -1.7146 -10.0400  3.7857
H  -0.9286 -10.0510  2.1920
H  -2.5258 -10.8016  2.4007
H   1.7186 10.5865 -1.7427
H   0.9919  9.8595 -3.1915
H   2.5866 10.6378 -3.2934
H   6.2007  0.1764  1.0618
H   7.0975  0.0389 -0.4694
H   5.4068 -0.4974 -0.3780
H  -1.4166  3.8481 -1.9679
H  -1.4658  2.1833 -2.6597
H   0.1172  2.9449 -2.2559
H   1.4446 -4.2398  1.1462
H   0.0333 -3.8716  0.0889
H  -0.0245 -3.4837  1.8627
