66
angstrom
C  -3.9641  7.1963  0.0148
C  -2.5743  7.1748  0.0168
C  -1.8839  5.9570  0.0106
C  -2.6118  4.7484 -0.0073
C  -4.0091  4.7726 -0.0122
C  -4.6883  5.9959  0.0040
C  -1.9455  3.5132 -0.0124
C  -1.3718  2.4425 -0.0040
C  -0.6908  1.2155 -0.0030
C   0.7074  1.2075 -0.0028
C   1.4076 -0.0010 -0.0004
C   0.6919 -1.2172 -0.0021
C  -0.7065 -1.2097 -0.0031
C  -1.4065 -0.0010 -0.0004
C   1.3702 -2.4451 -0.0025
C   1.9442 -3.5154  0.0066
C   2.6123 -4.7496  0.0027
C   4.0094 -4.7725  0.0053
C   4.6877 -5.9965 -0.0076
C   3.9638 -7.1974 -0.0211
C   2.5738 -7.1776 -0.0206
C   1.8845 -5.9589 -0.0093
C   0.4795 -5.9174 -0.0163
C   6.0948 -5.9933 -0.0132
C  -0.7306 -5.8261 -0.0318
C  -2.1521 -5.6993 -0.0564
C   7.3072 -5.9399 -0.0217
C   8.7325 -5.8621 -0.0392
C  -2.8119  0.0075  0.0027
C   2.8122 -0.0060  0.0059
C  -6.0948  5.9940  0.0138
C  -7.3072  5.9414  0.0245
C  -8.7317  5.8631  0.0370
C  -0.4799  5.9174  0.0278
C   0.7307  5.8296  0.0436
C   2.1512  5.7010  0.0617
C  -4.0252  0.0430  0.0030
C  -5.4511  0.0955 -0.0079
C   4.0254 -0.0384  0.0073
C   5.4508 -0.0919  0.0112
H  -4.4958  8.1464  0.0235
H  -2.0126  8.1082  0.0255
H  -4.5666  3.8359 -0.0259
H   1.2527  2.1512 -0.0049
H  -1.2517 -2.1536 -0.0051
H   4.5672 -3.8358  0.0146
H   4.4953 -8.1475 -0.0329
H   2.0124 -8.1114 -0.0292
H  -2.5532 -5.7507 -1.0864
H  -2.4882 -4.7345  0.3707
H  -2.6525 -6.4981  0.5207
H   9.1335 -5.8775 -1.0701
H   9.2038 -6.7048  0.4995
H   9.1005 -4.9316  0.4329
H  -9.1462  5.7132 -0.9778
H  -9.1952  6.7830  0.4390
H  -9.0923  5.0221  0.6592
H   2.5672  5.5703 -0.9554
H   2.4746  4.8230  0.6538
H   2.6479  6.5855  0.4997
H  -5.8573  0.0082 -1.0332
H  -5.8327  1.0482  0.4075
H  -5.9036 -0.7187  0.5868
H   5.8646 -0.1812 -1.0109
H   5.8259 -0.9613  0.5847
H   5.9006  0.8109  0.4623
