64
angstrom
C  -4.0628  7.1674 -0.0068
C  -2.6723  7.1764 -0.0482
C  -1.9544  5.9745 -0.0164
C  -2.6568  4.7526  0.0652
C  -4.0530  4.7458  0.1148
C  -4.7600  5.9528  0.0755
C  -1.9587  3.5345  0.0759
C  -1.3691  2.4723  0.0511
C  -0.6833  1.2507  0.0240
C   0.7075  1.2401  0.0165
C   1.4041  0.0196  0.0086
C   0.7190 -1.2055  0.0164
C  -0.6874 -1.1873  0.0118
C  -1.3715  0.0196  0.0086
C   1.3601 -2.4492  0.0315
C   1.9035 -3.5364  0.0547
C   2.6078 -4.7505  0.0698
C   4.0053 -4.7248  0.0222
C   4.7338 -5.9189  0.0135
C   4.0594 -7.1479  0.0658
C   2.6701 -7.1788  0.1181
C   1.9325 -5.9883  0.1163
C   0.5280 -5.9872  0.1516
C   6.1384 -5.8670 -0.0507
C  -0.6813 -5.8876  0.1735
C  -2.1000 -5.7340  0.2014
C   7.3490 -5.8006 -0.1083
C   8.7721 -5.7164 -0.1769
O  -2.7382 -0.0435  0.1185
O   2.7414  0.2407 -0.0019
C  -6.1651  5.9204  0.1207
C  -7.3762  5.8583  0.1690
C  -8.7990  5.7769  0.2384
C  -0.5496  5.9538 -0.0659
C   0.6610  5.8661 -0.1018
C   2.0830  5.7510 -0.1341
C  -3.4247  0.3716 -1.0581
C   3.6325 -0.8584 -0.0986
H  -4.6161  8.1046 -0.0375
H  -2.1328  8.1210 -0.1070
H  -4.5916  3.8006  0.1846
H   1.2707  2.1732  0.0249
H  -1.2428 -2.1250  0.0246
H   4.5303 -3.7725 -0.0128
H   4.6276 -8.0767  0.0644
H   2.1447 -8.1324  0.1580
H  -2.4913 -5.6993  1.2367
H  -2.6215 -6.5608 -0.3137
H  -2.4186 -4.7930 -0.2887
H   9.2325 -5.6699  0.8285
H   9.1086 -4.8163 -0.7251
H   9.2148 -6.5899 -0.6912
H  -9.1551  5.7094  1.2845
H  -9.1883  4.8858 -0.2890
H  -9.2908  6.6586 -0.2126
H   2.5138  5.7012  0.8854
H   2.5612  6.6044 -0.6476
H   2.4104  4.8348 -0.6625
H  -4.4756  0.3020 -0.7520
H  -3.2147 -0.3116 -1.8862
H  -3.1689  1.4021 -1.3295
H   4.6075 -0.3552 -0.1476
H   3.4524 -1.4317 -1.0149
H   3.5724 -1.4864  0.7970
