26
angstrom
C   0.0000  1.0484  2.0143
C   0.0000 -1.0484  2.0143
C   1.0484  0.0000  2.0143
C  -1.0484  0.0000  2.0143
C   0.0000  2.0143  1.0484
C   0.0000  2.0143 -1.0484
C   1.0484  2.0143  0.0000
C  -1.0484  2.0143  0.0000
C   0.0000  1.0484 -2.0143
C   0.0000 -1.0484 -2.0143
C   1.0484  0.0000 -2.0143
C  -1.0484  0.0000 -2.0143
C   0.0000 -2.0143  1.0484
C   0.0000 -2.0143 -1.0484
C   1.0484 -2.0143  0.0000
C  -1.0484 -2.0143  0.0000
C   2.0143  0.0000  1.0484
C   2.0143  1.0484  0.0000
C   2.0143  0.0000 -1.0484
C   2.0143 -1.0484  0.0000
C  -2.0143  0.0000  1.0484
C  -2.0143  1.0484  0.0000
C  -2.0143  0.0000 -1.0484
C  -2.0143 -1.0484  0.0000
Xc  3.3449  1.7409  0.0000
Xa  2.0143  1.0484  0.0000
