82
angstrom
C   1.3340 -2.4950  2.9604
C   1.0637 -1.2910  3.7063
C   1.9889 -0.2211  3.5936
C  -0.2890 -0.9773  3.9786
C   0.2778 -3.2770  2.4282
C  -2.0218 -3.1976  1.5597
C  -1.0891 -2.8885  2.6063
C  -1.3570 -1.7728  3.4199
C  -0.7390  0.3812  4.0305
C   0.1708  1.4594  3.8149
C   1.5519  1.1412  3.6500
C  -0.3231  2.6202  3.1717
C  -2.0788  0.4281  3.5218
C  -3.4908  1.3116  1.7300
C  -2.5434  1.5496  2.7839
C  -1.6707  2.6578  2.6504
C  -3.1061 -2.3417  1.2802
C  -3.3178 -1.1434  2.0407
C  -2.4670 -0.9065  3.1514
C  -3.8672 -0.0172  1.3671
C   0.5094  3.3813  2.2919
C   1.8547  3.0021  2.0441
C   2.3811  1.9073  2.7701
C   2.3896  3.2554  0.7319
C  -0.3199  3.8980  1.2372
C  -0.7283  3.8408 -1.1705
C   0.1831  4.0391 -0.0837
C   1.5650  3.7658 -0.3059
C  -3.4794  2.1039  0.5464
C  -2.5363  3.1486  0.3770
C  -1.6640  3.4460  1.4648
C  -2.0548  3.4083 -0.9487
C   3.3431  2.3686  0.1445
C   3.7878  1.2064  0.8345
C   3.3406  1.0125  2.1700
C   4.0993  0.0430  0.0584
C   3.1057  2.3411 -1.2806
C   2.4673  0.9074 -3.1506
C   3.3175  1.1426 -2.0407
C   3.8667  0.0155 -1.3667
C  -0.2791  3.2773 -2.4274
C   1.0874  2.8895 -2.6059
C   2.0214  3.1976 -1.5599
C   1.3562  1.7742 -3.4197
C   3.8615 -1.2568  0.5652
C   3.3010 -1.4490  1.8634
C   3.0988 -0.2973  2.6786
C   2.4381 -2.5660  2.0570
C   3.4783 -2.1054 -0.5451
C   1.6634 -3.4461 -1.4645
C   2.5353 -3.1497 -0.3758
C   2.0535 -3.4085  0.9496
C   2.0792 -0.4271 -3.5215
C   2.5438 -1.5493 -2.7840
C   3.4900 -1.3126 -1.7295
C   1.6709 -2.6575 -2.6509
C   0.3202 -3.8976 -1.2378
C  -0.1833 -4.0392  0.0836
C   0.7265 -3.8408  1.1711
C  -1.5651 -3.7664  0.3056
C  -0.5083 -3.3809 -2.2937
C  -2.3797 -1.9068 -2.7710
C  -1.8531 -3.0022 -2.0455
C  -2.3884 -3.2562 -0.7329
C   0.7400 -0.3792 -4.0311
C  -1.5509 -1.1399 -3.6501
C  -0.1695 -1.4577 -3.8161
C   0.3243 -2.6193 -3.1734
C  -1.3357  2.4955 -2.9598
C  -1.9892  0.2224 -3.5931
C  -1.0643  1.2925 -3.7060
C   0.2890  0.9793 -3.9786
C  -3.8621  1.2549 -0.5642
C  -3.0991  0.2972 -2.6784
C  -3.3017  1.4480 -1.8623
C  -2.4394  2.5655 -2.0561
C  -3.3423 -2.3698 -0.1450
C  -3.3401 -1.0131 -2.1703
C  -3.7868 -1.2077 -0.8350
C  -4.0989 -0.0449 -0.0579
Xc  2.5366  4.1063  2.7962
Xa  1.8547  3.0021  2.0441
