182
angstrom
N  -5.1384  5.2258  1.2887
N  -3.4970  6.7097  1.2730
N  -5.1541  5.2679 -1.1598
N  -3.5456  6.8084 -1.1372
N  -1.2910  7.7123  1.2797
N   0.9323  7.8302  1.2526
N  -1.3127  7.7530 -1.1408
N   0.9040  7.8627 -1.1746
N   3.1991  6.9961  1.1305
N   4.9022  5.5865  1.0942
N   3.2092  7.1242 -1.2834
N   4.8557  5.6309 -1.3414
N   6.2072  3.5540  1.0541
N   6.7829  1.4042  1.0209
N   6.1372  3.5713 -1.3777
N   6.7097  1.4054 -1.4028
N   6.8604 -1.0009  1.0305
N   6.3856 -3.1773  1.0731
N   6.7829 -1.0385 -1.3880
N   6.3598 -3.2260 -1.3540
N   5.2004 -5.2834  1.1512
N   3.5984 -6.8156  1.1913
N   5.1983 -5.3745 -1.2963
N   3.6298 -6.9416 -1.2408
N   1.3736 -7.7705  1.2810
N  -0.8454 -7.7784  1.3219
N   1.3569 -7.8051 -1.1290
N  -0.8619 -7.8036 -1.0973
N  -3.0946 -6.8979  1.3201
N  -4.8226 -5.4874  1.3109
N  -3.1267 -6.9679 -1.1139
N  -4.8422 -5.5572 -1.1352
N  -6.2374 -3.5132  1.3142
N  -6.9856 -1.4087  1.3040
N  -6.2004 -3.5472 -1.1245
N  -6.7659 -1.4159 -1.1161
N  -7.0599  1.0208  1.2888
N  -6.4416  3.1668  1.2980
N  -6.8281  1.0156 -1.1180
N  -6.3897  3.1907 -1.1424
C  -4.1075  5.7336  1.9961
C  -5.3764  5.9950  0.0813
H  -6.2598  6.4183  0.0949
C  -4.2463  7.0483  0.0932
H  -4.6001  7.9600  0.1368
C  -4.1487  5.8169 -1.8651
C  -2.6504  7.7754 -1.7478
H  -3.0273  8.6632 -1.6540
H  -2.5744  7.5842 -2.6961
C  -2.5870  7.6702  1.8996
H  -2.9860  8.5544  1.8583
H  -2.4806  7.4397  2.8375
C  -0.1464  7.4189  1.9719
C  -0.9973  8.4506  0.0593
H  -1.4044  9.3421  0.0735
C   0.5506  8.5336  0.0484
H   0.8645  9.4633  0.0569
C  -0.2051  7.5044 -1.9090
C   2.1979  8.0093 -1.8132
H   2.0978  7.8394 -2.7637
H   2.4965  8.9267 -1.7074
C   2.2500  7.9140  1.7888
H   2.2183  7.7103  2.7370
H   2.5733  8.8239  1.6934
C   3.8604  6.0151  1.8390
C   3.9121  7.3827 -0.0516
H   4.2324  8.3078  0.0009
C   5.0820  6.3735 -0.0982
H   5.9520  6.8270 -0.1026
C   3.8112  6.1569 -2.0382
C   5.8994  4.8576 -1.9789
H   5.6664  4.7276 -2.9103
H   6.7249  5.3687 -1.9510
C   5.9982  4.8282  1.7041
H   6.8149  5.3493  1.6524
H   5.7992  4.6777  2.6416
C   6.1833  2.3934  1.7604
C   6.9349  3.4225 -0.1945
H   7.7222  4.0055 -0.2158
C   7.3350  1.9213 -0.2040
H   8.3070  1.8098 -0.2347
C   6.0981  2.4041 -2.1158
C   7.1751  0.1991 -2.0512
H   8.1422  0.2305 -2.1010
H   6.8348  0.1875 -2.9589
C   7.3185  0.2204  1.6470
H   7.0641  0.2178  2.5836
H   8.2863  0.2527  1.6044
C   6.3077 -2.0172  1.7794
C   7.4445 -1.4944 -0.1847
H   8.4091 -1.3234 -0.2180
C   7.1339 -3.0175 -0.1595
H   7.9532 -3.5543 -0.1580
C   6.2271 -2.0845 -2.0774
C   6.1961 -4.5525 -1.9368
H   5.9616 -4.4530 -2.8739
H   7.0495 -5.0153 -1.8978
C   6.2410 -4.4581  1.7386
H   6.0357 -4.3074  2.6741
H   7.0858 -4.9362  1.6932
C   4.1929 -5.7884  1.8769
C   5.4533 -6.0594 -0.0500
H   6.3493 -6.4566 -0.0383
C   4.3389 -7.1551  0.0011
H   4.7181 -8.0567  0.0544
C   4.1719 -5.9609 -1.9981
C   2.6557 -7.8968 -1.7607
H   2.5517 -7.7498 -2.7147
H   3.0008 -8.7942 -1.6372
C   2.7060 -7.7598  1.8331
H   3.0831 -8.6496  1.7556
H   2.6505 -7.5442  2.7790
C   0.2741 -7.4127  2.0109
C   1.0301 -8.4897  0.0994
H   1.3901 -9.4010  0.1137
C  -0.5107 -8.4897  0.0994
H  -0.8697 -9.4024  0.1064
C   0.2483 -7.5121 -1.8581
C  -2.1802 -7.9030 -1.7011
H  -2.5157 -8.8073 -1.5888
H  -2.1096 -7.7289 -2.6530
C  -2.1379 -7.8033  1.9223
H  -2.0482 -7.5807  2.8628
H  -2.4868 -8.7065  1.8675
C  -3.7593 -5.9367  2.0471
C  -3.8311 -7.2759  0.1275
H  -4.1312 -8.2079  0.1607
C  -5.0179 -6.2834  0.1265
H  -5.8789 -6.7533  0.1522
C  -3.7958 -6.0364 -1.8371
C  -5.9437 -4.8624 -1.7427
H  -6.7432 -5.4076 -1.6670
H  -5.7599 -4.7367 -2.6854
C  -5.9288 -4.7859  1.9482
H  -6.7173 -5.3498  1.9204
H  -5.7088 -4.6286  2.8801
C  -6.3575 -2.3571  2.0554
C  -6.9844 -3.4166  0.0729
H  -7.7504 -4.0290  0.0685
C  -7.4414 -1.9371  0.0471
H  -8.4143 -1.8634 -0.0413
C  -6.1367 -2.4009 -1.8224
C  -7.2411 -0.2096 -1.7893
H  -6.9024 -0.2011 -2.6981
H  -8.2093 -0.2342 -1.8328
C  -7.5586 -0.2147  1.8772
H  -7.3718 -0.2051  2.8295
H  -8.5213 -0.2458  1.7681
C  -6.4925  2.0161  2.0420
C  -7.5321  1.5068  0.0389
H  -8.4973  1.3737 -0.0508
C  -7.1703  3.0195  0.0586
H  -7.9745  3.5785  0.0459
C  -6.2425  2.0257 -1.8351
C  -6.1951  4.4739 -1.7564
H  -7.0294  4.9670 -1.7099
H  -5.9843  4.3397 -2.6947
C  -6.2172  4.4499  1.9191
H  -5.9985  4.3126  2.8554
H  -7.0398  4.9669  1.8815
O  -3.7658  5.3581  3.1223
O  -3.8029  5.4704 -3.0230
O  -0.1237  6.8507  3.0516
O  -0.2011  7.0166 -3.0252
O   3.5507  5.6091  2.9473
O   3.4240  5.7846 -3.1410
O   5.7004  2.2675  2.8835
O   5.5954  2.2764 -3.2194
O   5.7971 -1.8934  2.8997
O   5.7211 -1.9823 -3.1981
O   3.8493 -5.3880  2.9848
O   3.8088 -5.6290 -3.1200
O   0.2782 -6.8486  3.0955
O   0.2268 -7.0309 -2.9939
O  -3.4412 -5.5328  3.1459
O  -3.4776 -5.6692 -2.9917
O  -5.9388 -2.2096  3.1878
O  -5.6072 -2.2316 -2.9134
O  -6.0848  1.9043  3.1850
O  -5.7047  1.8884 -2.9070
Xc  0.0000  0.0000 -0.0000
Xa  0.0000  0.0056  1.0000
