180
angstrom
N  -0.6724 -6.8624 -2.7979
N   1.4484 -7.1887 -2.2571
N  -1.3006 -7.3308 -0.4777
N   0.8369 -7.7148  0.0168
N   3.7390 -6.8087 -1.5639
N   5.5285 -5.6992 -0.8397
N   3.1126 -7.2743  0.7277
N   4.8905 -6.1629  1.4562
N   6.7828 -3.8015 -0.0185
N   7.2921 -1.7237  0.5401
N   6.2328 -4.3204  2.2775
N   6.6446 -2.2085  2.8383
N   7.1348  0.6477  0.9728
N   6.3450  2.7194  1.1693
N   6.4545  0.1730  3.2599
N   5.6551  2.2576  3.4476
N   5.0330  4.7367  1.1670
N   3.4308  6.2712  0.9617
N   4.3189  4.3052  3.4387
N   2.7483  5.8755  3.2577
N   1.3255  7.3673  0.5003
N  -0.7858  7.7589 -0.0516
N   0.6320  7.0157  2.8228
N  -1.4692  7.4569  2.2665
N  -3.0385  7.3462 -0.8419
N  -4.7582  6.1513 -1.5771
N  -3.7014  6.9469  1.4408
N  -5.4179  5.7427  0.7145
N  -6.0047  4.2035 -2.2747
N  -6.5448  2.1035 -2.7979
N  -6.7060  3.8207  0.0257
N  -7.2394  1.7252 -0.4821
N  -6.5158 -0.2863 -3.2306
N  -5.8974 -2.4223 -3.4404
N  -7.1440 -0.6619 -0.9038
N  -6.3633 -2.7171 -1.0737
N  -4.5704 -4.4588 -3.4315
N  -2.8605 -5.8812 -3.2306
N  -5.0223 -4.7463 -1.0737
N  -3.4444 -6.2964 -0.8971
C   0.6046 -6.5947 -3.1423
C  -0.7334 -7.8329 -1.7206
H  -1.1750 -8.6590 -2.0076
C   0.7507 -8.0795 -1.3696
H   1.0081 -9.0127 -1.5153
C  -0.3892 -7.3562  0.5114
C   1.9263 -8.1267  0.8845
H   2.1652 -9.0441  0.6836
H   1.6282 -8.0931  1.8073
C   2.8690 -7.3723 -2.5595
H   3.0533 -8.3223 -2.6390
H   3.0652 -6.9623 -3.4183
C   4.6424 -5.8243 -1.8641
C   4.0704 -7.4665 -0.3077
H   4.2671 -8.4172 -0.4424
C   5.3189 -6.6934  0.1890
H   6.0967 -7.2838  0.2862
C   3.6311 -6.6006  1.8029
C   5.8137 -5.6894  2.4696
H   5.3902 -5.7696  3.3394
H   6.5980 -6.2611  2.4696
C   6.7414 -4.9572 -0.9347
H   6.8482 -4.6426 -1.8464
H   7.4880 -5.5442 -0.7360
C   6.9216 -2.5133 -0.4909
C   7.2492 -3.9357  1.3304
H   8.0409 -4.5112  1.3878
C   7.5701 -2.4786  1.7344
H   8.5048 -2.3776  2.0148
C   5.9507 -3.3300  3.1760
C   6.8477 -1.1163  3.7655
H   6.3486 -1.2983  4.5757
H   7.7892 -1.0812  4.0017
C   7.8705 -0.3986  0.2994
H   8.7901 -0.3904  0.6085
H   7.8748 -0.2207 -0.6543
C   6.6374  1.7097  0.2862
C   7.2992  0.9351  2.3857
H   8.2392  0.8818  2.6572
C   6.7498  2.3831  2.5093
H   7.4340  2.9986  2.8427
C   5.5639  0.9812  3.9399
C   5.1580  3.3882  4.2004
H   5.9151  3.8805  4.5514
H   4.6494  3.0547  4.9554
C   6.2486  4.0912  0.7343
H   6.2941  4.1175 -0.2348
H   7.0086  4.5844  1.0787
C   4.2180  5.3996  0.2751
C   4.8875  5.2486  2.5005
H   5.7268  5.6279  2.8360
C   3.7819  6.3335  2.3680
H   4.1127  7.2204  2.6197
C   3.1085  4.7410  3.9112
C   1.7104  6.7735  3.7500
H   1.3399  6.4013  4.5669
H   2.1198  7.6247  3.9774
C   2.7602  7.3589  0.2751
H   2.9312  7.2859 -0.6764
H   3.1321  8.2034  0.5798
C   0.4430  7.3589 -0.5086
C   0.7646  7.9330  1.7145
H   1.2375  8.7490  1.9817
C  -0.7151  8.2340  1.3083
H  -0.9216  9.1895  1.3701
C  -0.6850  6.8160  3.1628
C  -2.9088  7.6198  2.4475
H  -3.1550  7.2768  3.3217
H  -3.1210  8.5655  2.4320
C  -1.8518  8.1590 -0.9479
H  -2.0874  9.0810 -0.7625
H  -1.5245  8.1162 -1.8619
C  -3.4984  6.5806 -1.8773
C  -4.0257  7.5440  0.1670
H  -4.2629  8.4903  0.2597
C  -5.2241  6.7048 -0.3165
H  -6.0232  7.2594 -0.4424
C  -4.5867  5.9761  1.7874
C  -6.6579  5.0014  0.8734
H  -7.4064  5.5802  0.6549
H  -6.7523  4.7317  1.8006
C  -5.6207  5.5720 -2.5529
H  -5.1778  5.6016 -3.4161
H  -6.4227  6.1135 -2.6169
C  -5.7822  3.1791 -3.1666
C  -7.1054  3.9054 -1.3762
H  -7.8629  4.5124 -1.5087
C  -7.4614  2.4445 -1.7405
H  -8.3929  2.3656 -2.0385
C  -6.8830  2.5664  0.5092
C  -7.8578  0.4497 -0.2459
H  -8.7714  0.4747 -0.5726
H  -7.8894  0.2829  0.7078
C  -6.8376  1.0361 -3.7450
H  -7.7804  1.0645 -3.9702
H  -6.3329  1.1887 -4.5597
C  -5.7546 -1.1715 -3.9636
C  -7.3661 -0.9880 -2.2858
H  -8.3131 -0.9035 -2.5264
C  -6.8826 -2.4553 -2.3939
H  -7.6202 -3.0610 -2.6147
C  -6.6217 -1.6889 -0.2128
C  -6.2194 -4.0826 -0.5748
H  -6.1887 -4.0630  0.3944
H  -6.9978 -4.5973 -0.8375
C  -5.5107 -3.6145 -4.1557
H  -5.1110 -3.3552 -5.0012
H  -6.3058 -4.1322 -4.3544
C  -3.3633 -4.8356 -3.9614
C  -4.9867 -5.3318 -2.3895
H  -5.8369 -5.7639 -2.6081
C  -3.8354 -6.3725 -2.2836
H  -4.1447 -7.2714 -2.5198
C  -4.1770 -5.3807 -0.2017
C  -2.7201 -7.3500 -0.2437
H  -3.0749 -8.2008 -0.5461
H  -2.8782 -7.2880  0.7123
C  -1.7901 -6.7038 -3.7406
H  -1.4537 -6.3095 -4.5619
H  -2.1442 -7.5826 -3.9592
O   0.9502 -5.9049 -4.1071
O  -0.6210 -7.0847  1.7168
O   4.6176 -5.1582 -2.8863
O   3.0635 -6.3920  2.8603
O   6.7384 -2.1564 -1.6433
O   5.1485 -3.4269  4.0988
O   6.4835  1.7451 -0.9325
O   4.8115  0.6205  4.8291
O   4.1845  5.2145 -0.9479
O   2.4804  4.1869  4.8172
O   0.6943  7.0357 -1.6654
O  -1.0710  6.1510  4.1165
O  -2.8892  6.3084 -2.9017
O  -4.6253  5.3723  2.8625
O  -5.0166  3.2118 -4.1071
O  -6.7275  2.2378  1.7079
O  -5.0486 -0.8678 -4.9063
O  -6.3983 -1.7289  0.9904
O  -2.8113 -4.3232 -4.9195
O  -4.1174 -5.1614  0.9838
