108
angstrom
O   1.3422  4.2894 -0.7829
C   2.3870  3.6337 -0.8050
N   3.2017  3.4236  0.2494
N   2.9264  3.0536 -1.9066
C   2.9635  3.9405  1.5837
C   4.1911  2.4068 -1.6267
O   0.1982  3.8794  2.4109
C   1.0443  3.1298  2.9028
N   0.8420  2.2790  3.9697
N   2.3362  3.0211  2.4885
C  -0.4079  2.2049  4.7083
C   3.1083  2.1299  3.3532
O  -2.7857  2.1426  3.0691
C  -2.3537  1.1429  3.6497
N  -3.0021 -0.0810  3.6982
N  -1.1956  1.0572  4.3605
C  -4.2850 -0.3245  3.0705
C  -1.0812 -0.2224  5.0491
O   4.3921 -0.8893 -0.4836
C   4.2826  0.3206 -0.6166
N   4.2016  0.9865 -1.7916
N   4.2611  1.2322  0.4004
C   4.6303  0.8708  1.7417
C   4.3413  2.5729 -0.0873
O   3.1947 -1.3439  2.9070
C   2.9558 -0.1943  3.2326
N   3.5259  0.9141  2.6922
N   2.0880  0.2024  4.2095
C   1.4054 -0.7306  5.0464
C   2.0683  1.6381  4.3937
O   0.4783 -2.8619  3.3144
C  -0.3011 -2.0598  3.8437
N  -1.6649 -2.0880  3.7300
N   0.0502 -1.0139  4.6293
C   2.3778  3.2205 -3.2215
C  -2.2826 -1.0418  4.5004
H   3.8048  4.1744  1.9579
H   2.4197  4.7171  1.5172
H  -0.2090  2.1699  5.6366
H  -0.9145  2.9869  4.5226
H  -4.8023 -0.8643  3.6552
H  -4.7187  0.5111  2.9444
H   4.9548 -0.0226  1.7237
H   5.3163  1.4505  2.0465
H   1.8924 -1.5464  5.0450
H   1.3798 -0.3777  5.9276
H   1.7668  3.9469 -3.1827
H   3.0832  3.4302 -3.8229
H   4.8375  2.7838 -2.2100
H   3.8684  2.5959  3.6815
H  -1.0036 -0.0473  5.9789
H   5.1357  2.9593  0.2605
H   2.2075  1.8247  5.3152
H  -2.8863 -1.4328  5.1212
N  -4.2016 -0.9865  1.7916
C   4.2850  0.3245 -3.0705
C  -2.3778 -3.2205  3.2215
N   1.6649  2.0880 -3.7300
C  -4.1911 -2.4068  1.6267
C  -4.2826 -0.3206  0.6166
N   3.0021  0.0810 -3.6982
H   4.8023  0.8643 -3.6552
H   4.7187 -0.5111 -2.9444
N  -2.9264 -3.0536  1.9066
H  -1.7668 -3.9469  3.1827
H  -3.0832 -3.4302  3.8229
C   0.3011  2.0598 -3.8437
C   2.2826  1.0418 -4.5004
C  -4.3413 -2.5729  0.0873
H  -4.8375 -2.7838  2.2100
O  -4.3921  0.8893  0.4836
N  -4.2611 -1.2322 -0.4004
C   2.3537 -1.1429 -3.6497
C  -2.3870 -3.6337  0.8050
O  -0.4783  2.8619 -3.3144
N  -0.0502  1.0139 -4.6293
C   1.0813  0.2224 -5.0491
H   2.8863  1.4328 -5.1212
N  -3.2017 -3.4236 -0.2494
H  -5.1357 -2.9593 -0.2605
C  -4.6303 -0.8708 -1.7417
O   2.7857 -2.1426 -3.0691
N   1.1956 -1.0572 -4.3605
O  -1.3422 -4.2894  0.7829
C  -1.4054  0.7306 -5.0464
H   1.0036  0.0473 -5.9789
C  -2.9635 -3.9405 -1.5837
N  -3.5259 -0.9141 -2.6922
H  -4.9548  0.0226 -1.7237
H  -5.3163 -1.4505 -2.0465
C   0.4079 -2.2049 -4.7083
N  -2.0880 -0.2024 -4.2095
H  -1.8924  1.5464 -5.0450
H  -1.3797  0.3777 -5.9276
N  -2.3361 -3.0211 -2.4885
H  -3.8048 -4.1744 -1.9579
H  -2.4197 -4.7172 -1.5172
C  -3.1083 -2.1299 -3.3532
C  -2.9558  0.1943 -3.2326
N  -0.8420 -2.2790 -3.9698
H   0.2090 -2.1699 -5.6366
H   0.9146 -2.9869 -4.5226
C  -2.0683 -1.6381 -4.3937
C  -1.0443 -3.1298 -2.9028
H  -3.8684 -2.5959 -3.6815
O  -3.1947  1.3439 -2.9070
H  -2.2074 -1.8247 -5.3152
O  -0.1982 -3.8794 -2.4110
